LAMMPS (1 Feb 2014)
units real
atom_style full

dimension 3
boundary p p p

special_bonds lj 0.0 0.0 0.5 coul 0.0 0.0 0.5

read_data lj_bulk.lmp
  orthogonal box = (-19.9953 -19.8859 -19.8867) to (30.1108 30.2202 30.2194)
  reading atoms ...
  400 atoms

pair_style lj/cut 9.0
kspace_style none

pair_coeff 1 1   0.2390057   4.0000000

pair_modify mix geometric

thermo_style custom step temp epair press

# make the random number seed a variable
velocity all create 120.0 123456
fix 1 all nve
fix 2 all langevin 120 120 1.0 123456

thermo 1000

dump 1 all dcd 1000 lj_bulk.dcd
dump 2 all xyz 1000 lj_bulk.xyz

#Run it!
run 10000
Step Temp E_pair Press
0          120   -207.41933    30.268748
Averages over the last 6 of 11 rows, steps 5000 to 10000:
Temp E_pair Press
119.302 -209.141 28.1463
Loop time of 0.622394 on 1 procs for 10000 steps with 400 atoms

Pair  time (%) = 0.378362 (60.7914)
Bond  time (%) = 0.000483513 (0.077686)
Neigh time (%) = 0.000583172 (0.0936982)
Comm  time (%) = 0.0242972 (3.90384)
Outpt time (%) = 0.00388455 (0.624131)
Other time (%) = 0.214784 (34.5093)
